6
BrF5.out	Energy:   -3073.9037923
Br         1.11175        0.03370        0.75155
F          1.10348       -1.80400        0.74311
F          1.11060        1.80096        0.24746
F          1.08011       -0.20760       -1.00463
F         -0.71125        0.00658        0.52791
F          2.92670       -0.00939        0.46407
