6
IF5.out	Energy:    -797.0298484
I          1.05320       -0.37017       -0.53509
F          1.05011        1.41002       -1.30345
F          1.00548       -1.74026        0.83603
F          0.92235        0.68136        1.01012
F         -0.87186       -0.22134       -0.35631
F          2.92704       -0.10891       -0.11140
