5
 energy: -22.722950207371 gnorm: 0.000150311159 xtb: 6.7.1 (unknown)
Xe          -0.98298459328243        0.23194057375391       -0.00000317569981
F           -0.98298461398479        0.23194051000396       -1.91775617562708
F            0.93476840429800        0.23194054736909       -0.00000317570018
F           -0.98298461398457        0.23194051000396        1.91774982422748
F           -2.90073759554621        0.23194054736909       -0.00000317570041
