4
Coordinates from ORCA-job ClF3 E -759.356091816337
  Cl          0.95681094139007      0.04495129964391      0.07822162504577
  F           0.06226679785303     -0.08048127951097      1.62257885286467
  F           0.06228726240824      0.17042380298623     -1.46613951742978
  F           2.74611499834865      0.04497617688083      0.07820903951934
