6
Coordinates from ORCA-job PF5 E -840.487643043452
  P           1.07856000018342      0.02165507629709     -0.05791029957905
  F           1.07856000002525      1.57821155577399     -0.25277512268608
  F           1.07855999955481     -0.92444498698365     -1.30922808264181
  F           1.07856000020166     -0.58673705493342      1.38823137756748
  F          -0.52143007681516      0.02097770481726     -0.05792393659406
  F           2.67855007685002      0.02097770502873     -0.05792393606648
