5
Coordinates from ORCA-job SF4 E -797.317154941979
  S          -1.43274978201033      0.64010361238339      0.21802127663157
  F          -3.03538293890815      0.63935787689307      0.21810195585698
  F          -1.48603745416425     -0.39727620464772     -1.13004722051701
  F          -1.13075561267599      1.84952855436385     -0.78930397559998
  F          -1.48699591824128      1.77868980200740      1.48201384212845
